powerflow/test/test_XFMR.glm
// $Id$
//
// Powerflow module self-test

#set include="../../core"
#include "../../core/rt/msvc_debugger.glm"

#include "assert.glm"

clock {
	timezone EST+5EDT;
	starttime '2000-01-01 00:00:00 EST';
}

module powerflow;

///////////////////////////////////////////////////////
// test 5:  WYE_WYE TRANSFORMER
///////////////////////////////////////////////////////
// AN

object transformer {
	phases AN;	
	configuration object transformer_configuration {
		connect_type WYE_WYE;
		install_type POLETOP;
		primary_voltage 7200 V;
		secondary_voltage 4160 V;
		power_rating 6000;
		powerA_rating 6000;
		resistance 0.01;
		reactance 0.06;
	};
	from object node {
		name XFMR_fAN;
		phases AN;
		voltage_A 7200 + 0j;		
		
	};
	to object load {
		name XFMR_tAN;
		phases AN;
		voltage_A 4160 + 0j;		
		voltage_B 0;
		voltage_C 0;
		constant_current_A  1;
		constant_power_A 1000+2000j;	
		constant_impedance_A 1500 + 750j;		
	};
	object complex_assert {
		target "power_out";
		value 14.3876 + 6.6134j;
		within 0.01;
	};		
	object complex_assert {
		target "power_in";
		value 14.3880 + 6.6160j;
		within 0.01;
	};	
};


// BN

object transformer {
	phases BN;	
	configuration object transformer_configuration {
		connect_type WYE_WYE;
		install_type POLETOP;
		primary_voltage 7200 V;
		secondary_voltage 4160 V;
		power_rating 6000;
		powerB_rating 6000;
		resistance 0.01;
		reactance 0.06;
	};
	from object node {
		name XFMR_fBN;
		phases BN;
		voltage_B -3600 - 6235.383j;		
		
	};
	to object load {
		name XFMR_tBN;
		phases BN;
		voltage_B -2080-3602.666j;		
		constant_current_B -0.5-0.866j;
		constant_power_B 1000+2000j;	
		constant_impedance_B 1500+750j;		
	};
	object complex_assert {
		target "power_out";
		value 14.3876 + 6.6134j;
		within 0.01;
	};		
	object complex_assert {
		target "power_in";
		value 14.3880 + 6.6160j;
		within 0.01;
	};	
};


// CN

object transformer {
	phases CN;	
	configuration object transformer_configuration {
		connect_type WYE_WYE;
		install_type POLETOP;
		primary_voltage 7200 V;
		secondary_voltage 4160 V;
		power_rating 6000;
		powerC_rating 6000;
		resistance 0.01;
		reactance 0.06;
	};
	from object node {
		name XFMR_fCN;
		phases CN;
		voltage_C -3600 + 6235.383j;		
		
	};
	to object load {
		name XFMR_tCN;
		phases CN;
		voltage_C -2080 + 3602.666j;		
		constant_current_C -0.5+0.866j;
		constant_power_C 1000+2000j;	
		constant_impedance_C 1500+750j;		
	};
	object complex_assert {
		target "power_out";
		value 14.3876 + 6.6134j;
		within 0.01;
	};		
	object complex_assert {
		target "power_in";
		value 14.3880 + 6.6160j;
		within 0.01;
	};	
};


// ABCN

object transformer {
	phases ABCN;	
	configuration object transformer_configuration {
		connect_type WYE_WYE;
		install_type POLETOP;
		primary_voltage 7200 V;
		secondary_voltage 4160 V;
		power_rating 6000;
		powerA_rating 2000;
		powerB_rating 2000;
		powerC_rating 2000;
		resistance 0.01;
		reactance 0.06;
	};
	from object node {
		name XFMR_fABCN;		
		phases ABCN;
		voltage_A 7200 + 0j;		
		voltage_B -3600 - 6235.383j;		
		voltage_C -3600 + 6235.383j;		
		
	};
	to object load {
		name XFMR_tABCN;
		phases ABCN;
		voltage_A 4160 +0j;
		voltage_B -2080 - 3602.666j;
		voltage_C -2080 + 3602.666j;		
		constant_current_A 1;
		constant_current_B -0.5-0.866j;
		constant_current_C -0.5+0.866j;
		constant_power_A 1000+2000j;	
		constant_power_B 1000+2000j;	
		constant_power_C 1000+2000j;	
		constant_impedance_A 1500+750j;		
		constant_impedance_B 1500+750j;		
		constant_impedance_C 1500+750j;		
	};
	object complex_assert {
		target "power_out";
		value 43.1628 + 19.8403j;
		within 0.01;
	};		
	object complex_assert {
		target "power_in";
		value 43.1641 + 19.8479j;
		within 0.01;
	};	
};
